/*--------------------------------*- C++ -*----------------------------------*\
  =========                 |
  \\      /  F ield         | OpenFOAM: The Open Source CFD Toolbox
   \\    /   O peration     | Website:  https://openfoam.org
    \\  /    A nd           | Version:  7
     \\/     M anipulation  |
\*---------------------------------------------------------------------------*/
FoamFile
{
    version     2.0;
    format      ascii;
    class       dictionary;
    object      blockMeshDict;
}
// * * * * * * * * * * * * * * * * * * * * * * * * * * * * * * * * * * * * * //

convertToMeters 0.001;

vertices
(
    (-1.5 -1.5   0)
    ( 1.5 -1.5   0)
    ( 1.5  1.5   0)
    (-1.5  1.5   0)
    (-1.5 -1.5 50)
    ( 1.5 -1.5 50)
    ( 1.5  1.5 50)
    (-1.5  1.5 50)
);

blocks
(
    // hex (0 1 2 3 4 5 6 7) (1 15 45) simpleGrading (1 1 1)
    hex (0 1 2 3 4 5 6 7) (6 6 150) simpleGrading (1 1 1)
);

edges
(
);

boundary
(
    top
/*--------------------------------*- C++ -*----------------------------------*\																
  =========                 |																
  \\      /  F ield         | OpenFOAM: The Open Source CFD Toolbox																
   \\    /   O peration     | Website:  https://openfoam.org																
    \\  /    A nd           | Version:  7																
     \\/     M anipulation  |																
\*---------------------------------------------------------------------------*/																
FoamFile																
{																
    version     2.0;																
    format      ascii;																
    class       vectorField;																
    object      kinematicCloudPositions;																
}																
// * * * * * * * * * * * * * * * * * * * * * * * * * * * * * * * * * * * * * //																
																
(																
(-0.0013586	0.000359	0.00035453)														
(-0.00133634	0.000397	0.00033197)														
(-0.0013998	0.000368	0.00032775)														
(-0.00132185	0.000346	0.00032326)														
(-0.00135877	0.000309	0.00035915)														
(-0.00141159	0.000395	0.00037489)														
(-0.00131289	0.000361	0.00037488)														
(-0.00142519	0.000346	0.00037247)														
(-0.00134902	0.000434	0.00030009)														
(-0.00130761	0.000390	0.00029171)														
(-0.00132212	0.000422	0.0003749)														
(-0.00136426	0.000372	0.00029269)														
(-0.00143906	0.000343	0.00030912)														
(-0.00144619	0.000380	0.00034182)														
(-0.00142335	0.000385	0.00028712)														
(-0.00142147	0.000421	0.00032547)														
(-0.00138132	0.000325	0.00031071)														
(-0.0013384	0.000297	0.00031494)														
(-0.00130061	0.000341	0.00027824)														
(-0.00127633	0.000366	0.00032877)														
(-0.00142771	0.000267	0.00037298)														
(-0.00134135	0.000263	0.00036644)														
(-0.00130894	0.000309	0.00036279)														
(-0.0014081	0.000444	0.00036827)														
(-0.00136336	0.000447	0.00034628)														
(-0.00127546	0.000394	0.0003745)														
(-0.00142613	0.000305	0.00033898)														
(-0.00147493	0.000351	0.00037015)														
(-0.00133403	0.000427	0.00025281)														
(-0.00137431	0.000477	0.00029993)														
(-0.00130082	0.000441	0.00028843)														
(-0.00138629	0.000415	0.00027199)														
(-0.00132881	0.000475	0.00032058)														
(-0.00126682	0.000412	0.00031108)														
(-0.00131196	0.000376	0.00024392)														
(-0.00134689	0.000488	0.00037495)														
(-0.00127923	0.000440	0.00035684)														
(-0.00139265	0.000353	0.00025635)														
(-0.00143097	0.000319	0.00026072)														
(-0.00147499	0.000348	0.00027225)														
(-0.00147499	0.000308	0.00031213)														
(-0.00147489	0.000420	0.00031417)														
(-0.00147499	0.000427	0.0003661)														
(-0.00142481	0.000386	0.00023696)														
(-0.00147497	0.000417	0.00026425)														
(-0.00144059	0.000458	0.00029814)														
(-0.00135844	0.000307	0.00027009)														
(-0.0013978	0.000280	0.00029475)														
(-0.00131409	0.000250	0.00030433)														
(-0.00129185	0.000296	0.00029678)														
(-0.00130307	0.000306	0.00024161)														
(-0.00125466	0.000334	0.00025462)														
(-0.00125904	0.000309	0.00036014)														
(-0.00125441	0.000328	0.00030423)														
(-0.00139694	0.000226	0.00035271)														
(-0.00147499	0.000283	0.00036953)														
(-0.00129916	0.000238	0.00035525)														
(-0.00135322	0.000231	0.00032883)														
(-0.00143018	0.000488	0.00036055)														
(-0.00138561	0.000509	0.00035143)														
(-0.00123971	0.000353	0.00037446)														
(-0.00123371	0.000411	0.00034859)														
(-0.00143755	0.000260	0.00031852)														
(-0.00141415	0.000450	0.0002497)														
(-0.00135569	0.000410	0.00020345)														
(-0.00132082	0.000470	0.00023119)														
(-0.00128572	0.000425	0.0002401)														
(-0.00142047	0.000507	0.00031382)														
(-0.00136269	0.000520	0.00027449)														
(-0.00140519	0.000498	0.00026021)														
(-0.00129725	0.000505	0.00025954)														
(-0.00129581	0.000513	0.00032218)														
(-0.00123551	0.000387	0.00026332)														
(-0.00122176	0.000432	0.00030189)														
(-0.00130818	0.000394	0.00019744)														
(-0.0012951	0.000342	0.00020775)														
(-0.00134531	0.000361	0.00020939)														
(-0.0013202	0.000529	0.00036497)														
(-0.00126652	0.000509	0.00036727)														
(-0.00126745	0.000471	0.00031079)														
(-0.00123872	0.000468	0.0003669)														
(-0.00140089	0.000331	0.00020499)														
(-0.0014538	0.000291	0.00022609)														
(-0.0014584	0.000348	0.00022506)														
(-0.00147499	0.000280	0.0002704)														
(-0.00147498	0.000470	0.00034008)														
(-0.00141508	0.000401	0.00019013)														
(-0.00147496	0.000394	0.00021421)														
(-0.00146191	0.000464	0.00025326)														
(-0.00147498	0.000494	0.00029616)														
(-0.00134675	0.000288	0.00022518)														
(-0.00135121	0.000254	0.00026914)														
(-0.0013915	0.000278	0.00024514)														
(-0.00139733	0.000235	0.00027306)														
(-0.00129257	0.000261	0.00026052)														
(-0.00133146	0.000209	0.00028193)														
(-0.0012825	0.000211	0.00031131)														
(-0.00123382	0.000273	0.00029202)														
(-0.00126394	0.000289	0.00021561)														
(-0.00131193	0.000295	0.00018987)														
(-0.00121575	0.000302	0.00025586)														
(-0.00123707	0.000364	0.00021876)														
(-0.00121225	0.000294	0.00035058)														
(-0.00126356	0.000264	0.00033141)														
(-0.00121424	0.000346	0.00032814)														
(-0.00120211	0.000350	0.00026596)														
(-0.00139754	0.000176	0.00035791)														
(-0.00140988	0.000203	0.00030984)														
(-0.001475	0.000224	0.00036209)														
(-0.00128159	0.000195	0.00037487)														
(-0.00132564	0.000196	0.00035134)														
(-0.00136344	0.000184	0.00031343)														
(-0.00146474	0.000519	0.00033841)														
(-0.00142381	0.000538	0.00036606)														
(-0.00136418	0.000553	0.00034221)														
(-0.00119689	0.000437	0.00036958)														
(-0.00147497	0.000231	0.00030226)														
(-0.00136068	0.000471	0.00019091)														
(-0.00143194	0.000470	0.00020692)														
(-0.00135524	0.000430	0.00015764)														
(-0.00131899	0.000442	0.00018994)														
(-0.00130115	0.000498	0.00019411)														
(-0.00135737	0.000510	0.00022464)														
(-0.00127132	0.000471	0.00022434)														
(-0.00124416	0.000445	0.00025933)														
(-0.00125594	0.000415	0.00020131)														
(-0.00140093	0.000549	0.00028945)														
(-0.00144903	0.000535	0.00028455)														
(-0.00132132	0.000549	0.000256)														
(-0.00140456	0.000525	0.00021807)														
(-0.00124821	0.000517	0.00025212)														
(-0.00131293	0.000559	0.00031136)														
(-0.00124578	0.000519	0.00031016)														
(-0.0011886	0.000406	0.00024691)														
(-0.00120084	0.000472	0.00032344)														
(-0.00119112	0.000460	0.00027409)														
(-0.00120207	0.000386	0.0003008)														
(-0.00131754	0.000399	0.0001486)														
(-0.0012868	0.000361	0.00015897)														
(-0.00133503	0.000348	0.00016229)														
(-0.00142588	0.000356	0.00016954)														
(-0.00131873	0.000578	0.00035708)														
(-0.00122437	0.000532	0.00035328)														
(-0.00127175	0.000561	0.00035593)														
(-0.00119778	0.000496	0.00037478)														
(-0.00142575	0.000298	0.00017565)														
(-0.00136492	0.000304	0.0001725)														
(-0.00146292	0.000242	0.00023804)														
(-0.00147496	0.000304	0.00018279)														
(-0.00144396	0.000247	0.00018848)														
(-0.00147497	0.000357	0.00017883)														
(-0.0013917	0.000398	0.00014595)														
(-0.00147494	0.000403	0.00015134)														
(-0.00142296	0.000442	0.0001625)														
(-0.00147499	0.000444	0.00020944)														
(-0.00147497	0.000507	0.00022237)														
(-0.00139411	0.000252	0.00018926)														
(-0.00131686	0.000243	0.00022043)														
(-0.00137252	0.000232	0.0002298)														
(-0.00142505	0.000198	0.00025455)														
(-0.00124495	0.000232	0.00023796)														
(-0.00127479	0.000191	0.00025383)														
(-0.00130619	0.000167	0.00030685)														
(-0.00135022	0.000167	0.00026295)														
(-0.00124219	0.000188	0.00029205)														
(-0.00121553	0.000228	0.00027856)														
(-0.00119077	0.000295	0.00030539)														
(-0.00127447	0.000255	0.00018077)														
(-0.00123446	0.000323	0.00019074)														
(-0.00130706	0.000308	0.00014177)														
(-0.00118917	0.000315	0.00021548)														
(-0.00121387	0.000267	0.00022021)														
(-0.00121683	0.000381	0.0001765)														
(-0.00117682	0.000258	0.00036746)														
(-0.00119017	0.000335	0.00037113)														
(-0.00121825	0.000231	0.0003749)														
(-0.0011673	0.000363	0.00032867)														
(-0.00118969	0.000385	0.0003728)														
(-0.00114309	0.000330	0.00027498)														
(-0.00139979	0.000127	0.00035364)														
(-0.00147497	0.000175	0.00037394)														
(-0.00135995	0.000148	0.00037493)														
(-0.00139644	0.000152	0.00029466)														
(-0.00145098	0.000174	0.00031348)														
(-0.0012677	0.000163	0.00033858)														
(-0.00123196	0.000161	0.00037487)														
(-0.00130981	0.000140	0.0003527)														
(-0.00134969	0.000137	0.0003081)														
(-0.00147499	0.000568	0.00035943)														
(-0.00143022	0.000591	0.00032334)														
(-0.00140593	0.000584	0.00037383)														
(-0.00135787	0.000574	0.00029531)														
(-0.00116271	0.000435	0.00032887)														
(-0.00147498	0.000197	0.00025588)														
(-0.00137704	0.000516	0.00017688)														
(-0.00138425	0.000480	0.00013834)														
(-0.0013269	0.000477	0.00015457)														
(-0.00143202	0.000506	0.00016207)														
(-0.00132908	0.000450	0.00011306)														
(-0.00135325	0.000374	0.00012324)														
(-0.00127693	0.000474	0.00015692)														
(-0.0012766	0.000528	0.0001628)														
(-0.00128516	0.000539	0.00021767)														
(-0.00132429	0.000541	0.00018551)														
(-0.0013671	0.000559	0.00021541)														
(-0.00122777	0.000484	0.00020396)														
(-0.00121523	0.000438	0.00021915)														
(-0.00127167	0.000418	0.00015379)														
(-0.00143306	0.000578	0.0002647)														
(-0.00147499	0.000575	0.00030732)														
(-0.00133737	0.000593	0.00023644)														
(-0.00127318	0.000558	0.00026523)														
(-0.00141393	0.000577	0.00021854)														
(-0.00144518	0.000544	0.00019559)														
(-0.00121735	0.000543	0.00022283)														
(-0.00120028	0.000510	0.00026456)														
(-0.00130451	0.000606	0.00029566)														
(-0.00126087	0.000593	0.00031671)														
(-0.00122389	0.000563	0.00029848)														
(-0.00114536	0.000402	0.00022218)														
(-0.00115748	0.000410	0.00028594)														
(-0.00119607	0.000524	0.00031293)														
(-0.00115534	0.000490	0.00029246)														
(-0.00118435	0.000477	0.00022774)														
(-0.00128242	0.000387	0.00011485)														
(-0.00131587	0.000355	0.00009587)														
(-0.00123044	0.000333	0.00013727)														
(-0.00135101	0.000322	0.00012285)														
(-0.0014258	0.000355	0.00011932)														
(-0.00135596	0.000630	0.00037485)														
(-0.00129278	0.000617	0.00037483)														
(-0.00118496	0.000561	0.00036557)														
(-0.00123079	0.000587	0.00036733)														
(-0.0011335	0.000479	0.00034187)														
(-0.00115488	0.000522	0.00037434)														
(-0.00139378	0.000296	0.00013256)														
(-0.00145575	0.000300	0.00013574)														
(-0.001475	0.000205	0.00020668)														
(-0.00147497	0.000256	0.00015048)														
(-0.00141538	0.000237	0.00014568)														
(-0.0014159	0.000199	0.000205)														
(-0.0014749	0.000357	0.00012864)														
(-0.00140071	0.000421	0.00010231)														
(-0.00144748	0.000396	0.00010053)														
(-0.00147496	0.000441	0.00011968)														
(-0.00142564	0.000462	0.00011706)														
(-0.00147499	0.000482	0.00017114)														
(-0.001475	0.000561	0.00024169)														
(-0.00133425	0.000210	0.0001878)														
(-0.00135742	0.000253	0.00013808)														
(-0.00137094	0.000174	0.00021803)														
(-0.00144405	0.000152	0.00024667)														
(-0.00124392	0.000204	0.00019637)														
(-0.00122576	0.000186	0.00024228)														
(-0.00126264	0.000162	0.00021505)														
(-0.00132173	0.000168	0.00021217)														
(-0.00126684	0.000147	0.00027685)														
(-0.00130295	0.000117	0.00029452)														
(-0.00133352	0.000115	0.00025501)														
(-0.00119822	0.000158	0.00030002)														
(-0.00117322	0.000242	0.00025528)														
(-0.00122014	0.000216	0.00032702)														
(-0.00115012	0.000280	0.0003309)														
(-0.00124601	0.000267	0.00012939)														
(-0.00130774	0.000254	0.00014334)														
(-0.00120874	0.000232	0.00015618)														
(-0.00120709	0.000291	0.00014946)														
(-0.00119043	0.000334	0.00016904)														
(-0.00126012	0.000309	0.00010487)														
(-0.00133309	0.000282	0.00009872)														
(-0.00117752	0.000272	0.00018527)														
(-0.0011874	0.000365	0.00021347)														
(-0.00113993	0.000324	0.00021301)														
(-0.00119397	0.000216	0.00021745)														
(-0.00120819	0.000377	0.00012745)														
(-0.00118013	0.000414	0.00018651)														
(-0.00112799	0.000273	0.000375)														
(-0.00117835	0.000209	0.00035359)														
(-0.00112953	0.000396	0.00032533)														
(-0.00109097	0.000327	0.00034731)														
(-0.00111051	0.000365	0.00029047)														
(-0.00114443	0.000441	0.00037497)														
(-0.00111169	0.000293	0.0002872)														
(-0.00137986	0.000097	0.00031371)														
(-0.00144226	0.000100	0.00035106)														
(-0.00139065	0.000081	0.00037121)														
(-0.00147498	0.000137	0.00033782)														
(-0.00141141	0.000107	0.00027627)														
(-0.00147495	0.000140	0.00028433)														
(-0.00123923	0.000114	0.00035824)														
(-0.00118209	0.000163	0.00037297)														
(-0.00132314	0.000095	0.00033523)														
(-0.00129256	0.000097	0.00037481)														
(-0.00144807	0.000610	0.0003664)														
(-0.00143321	0.000631	0.00028704)														
(-0.00140346	0.000632	0.00035949)														
(-0.00137241	0.000602	0.00033382)														
(-0.00138607	0.000594	0.00025707)														
(-0.00135119	0.000623	0.00029268)														
(-0.00112117	0.000441	0.00030128)														
(-0.00135898	0.00052237	0.00012816)														
(-0.00140692	0.0005517	0.00015802)														
(-0.00142256	0.00050825	0.00009775)														
(-0.00132297	0.00049819	0.0001032)														
(-0.00147493	0.00052503	0.00014449)														
(-0.00136292	0.00044204	0.00007706)														
(-0.0012838	0.00042911	0.00008734)														
(-0.00136438	0.00036874	0.00007477)														
(-0.00125589	0.00046153	0.00011347)														
(-0.0012382	0.00051703	0.00013265)														
(-0.00130031	0.00057013	0.00015031)														
(-0.00124286	0.00056476	0.00016235)														
(-0.00128954	0.00058884	0.00022274)														
(-0.00136266	0.00057494	0.00015788)														
(-0.00137265	0.00060679	0.00020077)														
(-0.00119555	0.00051537	0.00018181)														
(-0.00119559	0.00046528	0.00017037)														
(-0.00120793	0.00042727	0.00013049)														
(-0.00147495	0.00060918	0.00026902)														
(-0.00143887	0.00062343	0.00023318)														
(-0.00147494	0.00063263	0.00032114)														
(-0.00139828	0.00064903	0.00021906)														
(-0.00131282	0.00063412	0.00022096)														
(-0.00124349	0.00059841	0.00026946)														
(-0.00142675	0.00059511	0.00017386)														
(-0.00147498	0.00057342	0.00016014)														
(-0.0011875	0.0005831	0.00022726)														
(-0.00123599	0.00058798	0.00021052)														
(-0.0011699	0.00052748	0.00022388)														
(-0.00116721	0.0005473	0.00026975)														
(-0.00131581	0.00065152	0.000314)														
(-0.00128416	0.00063652	0.00026207)														
(-0.00126963	0.00064442	0.00033195)														
(-0.00121425	0.00061097	0.00031544)														
(-0.00117397	0.00057974	0.00030733)														
(-0.00112804	0.00043218	0.00018582)														
(-0.00109543	0.00040396	0.0002229)														
(-0.00112546	0.00037042	0.00018905)														
(-0.00111753	0.00044218	0.00024734)														
(-0.00114721	0.00053441	0.00031367)														
(-0.00112831	0.00050925	0.00024478)														
(-0.00110618	0.00048986	0.00030147)														
(-0.0011298	0.00048082	0.00019727)														
(-0.00125609	0.00039043	0.00006598)														
(-0.00135274	0.0003202	0.00007273)														
(-0.00132758	0.00040211	0.00006951)														
(-0.00123378	0.00034813	0.00008957)														
(-0.00118865	0.00032564	0.00011078)														
(-0.0013969	0.00029686	0.00007428)														
(-0.00142556	0.00033788	0.00007039)														
(-0.00137121	0.00066729	0.00034366)														
(-0.00130219	0.00066508	0.00036384)														
(-0.00119097	0.00061725	0.00037135)														
(-0.00114019	0.00057172	0.00034626)														
(-0.00124676	0.00065553	0.00037499)														
(-0.0010963	0.00048324	0.00037499)														
(-0.00110777	0.0005336	0.00034451)														
(-0.00139788	0.00025595	0.00010307)														
(-0.00147492	0.00029764	0.00008968)														
(-0.001475	0.00015754	0.00018432)														
(-0.00147495	0.00019902	0.0001549)														
(-0.00147499	0.00024847	0.00010079)														
(-0.00139541	0.00019552	0.00012516)														
(-0.00143227	0.00017486	0.00016438)														
(-0.00147499	0.00036074	0.00007832)														
(-0.00140689	0.00041851	0.00004069)														
(-0.00147497	0.00042883	0.00004269)														
(-0.00143775	0.00043956	0.00007423)														
(-0.00147493	0.00048157	0.00008984)														
(-0.00147494	0.00059771	0.00020812)														
(-0.00132145	0.00018655	0.00014232)														
(-0.00137863	0.00019266	0.00017224)														
(-0.00135722	0.00024567	0.00007415)														
(-0.00135043	0.00020958	0.00010828)														
(-0.00138181	0.00013281	0.00024384)														
(-0.00136426	0.0001236	0.00019778)														
(-0.00142514	0.00012431	0.00020479)														
(-0.00147495	0.00011803	0.00022635)														
(-0.00127697	0.00018388	0.00016496)														
(-0.00120113	0.00018641	0.00017763)														
(-0.00122396	0.00013686	0.00023508)														
(-0.00129022	0.00012192	0.00023063)														
(-0.00124294	0.00012199	0.00018796)														
(-0.00129315	0.00013795	0.00018338)														
(-0.00124983	0.00009465	0.00024199)														
(-0.00128032	0.00007512	0.00028028)														
(-0.00126821	0.00008782	0.00032705)														
(-0.00133761	0.00007089	0.00023184)														
(-0.00136213	0.00006987	0.00027557)														
(-0.00123068	0.00011986	0.00030697)														
(-0.00115368	0.00017799	0.00028869)														
(-0.00118412	0.00011428	0.00028083)														
(-0.00110106	0.00023911	0.00025688)														
(-0.00112426	0.00021734	0.00030215)														
(-0.00117706	0.0001755	0.0002446)														
(-0.00114804	0.00028479	0.00025329)														
(-0.00110511	0.00025865	0.00032302)														
(-0.00125056	0.00023535	0.00009066)														
(-0.0013014	0.00021897	0.00010645)														
(-0.00116104	0.00024158	0.00014481)														
(-0.0012677	0.00018211	0.00010911)														
(-0.00114358	0.00032462	0.00015421)														
(-0.00130825	0.00033942	0.00004891)														
(-0.00122352	0.00028804	0.00007767)														
(-0.00127979	0.00026163	0.00005982)														
(-0.00135189	0.00028557	0.00003076)														
(-0.00113072	0.00026812	0.00020255)														
(-0.00109866	0.00033029	0.00017602)														
(-0.00112139	0.00036039	0.0002419)														
(-0.00115367	0.00020177	0.00017439)														
(-0.00119042	0.00038201	0.00008094)														
(-0.00116105	0.00039324	0.00011976)														
(-0.00115973	0.00043774	0.00014756)														
(-0.00109935	0.00023146	0.00037172)														
(-0.00107954	0.00028516	0.00037292)														
(-0.0011383	0.00018763	0.00037428)														
(-0.00105014	0.00038435	0.00030523)														
(-0.00108378	0.00040997	0.00033949)														
(-0.00104961	0.00033338	0.00037473)														
(-0.00107386	0.00032517	0.00029311)														
(-0.00109262	0.00040876	0.00027499)														
(-0.00107394	0.00027968	0.0002457)														
(-0.00139733	0.00005019	0.00032677)														
(-0.00140758	0.00004902	0.00027778)														
(-0.00147499	0.00006275	0.00034805)														
(-0.001475	0.00009515	0.00030894)														
(-0.00143344	0.00005516	0.00037481)														
(-0.00133885	0.00004712	0.00037169)														
(-0.00144608	0.00007553	0.00025973)														
(-0.00139658	0.00008581	0.00023306)														
(-0.00119282	0.00010638	0.000375)														
(-0.00125354	0.0000626	0.00036959)														
(-0.00117181	0.00013163	0.00033321)														
(-0.00133847	0.00005092	0.00031788)														
(-0.00129543	0.0000481	0.00034339)														
(-0.00147497	0.00066219	0.0003694)														
(-0.00139434	0.00065988	0.00029991)														
(-0.00141414	0.0006815	0.00036493)														
(-0.00138107	0.00055539	0.00009773)														
(-0.00135539	0.00052018	0.00007204)														
(-0.00143952	0.00056129	0.0001201)														
(-0.00140441	0.00059706	0.00012568)														
(-0.00138127	0.00048169	0.00005284)														
(-0.00145159	0.00051128	0.00005693)														
(-0.00129121	0.00053015	0.00008007)														
(-0.0012809	0.00048143	0.00007467)														
(-0.0014749	0.00053591	0.00009545)														
(-0.00130736	0.00043682	0.00002515)														
(-0.00135694	0.00044772	0.00002535)														
(-0.00133368	0.00049022	0.00003753)														
(-0.00124469	0.00044936	0.00006211)														
(-0.0013962	0.00035654	0.00003439)														
(-0.0013504	0.00039451	0.00002508)														
(-0.00120953	0.00047707	0.00012385)														
(-0.00123514	0.00049813	0.00008647)														
(-0.00122005	0.00055389	0.00010425)														
(-0.00127514	0.00056929	0.00010714)														
(-0.00130432	0.00062223	0.00014344)														
(-0.00135454	0.00059717	0.00010492)														
(-0.00120238	0.00059392	0.00015538)														
(-0.00124394	0.00060188	0.00012869)														
(-0.00127291	0.00060954	0.00018018)														
(-0.00135398	0.00062337	0.0001488)														
(-0.001437	0.00067278	0.00018836)														
(-0.00117316	0.00055101	0.00015487)														
(-0.00117125	0.00043986	0.00009898)														
(-0.00147484	0.00066183	0.00026494)														
(-0.00147495	0.00065164	0.00021312)														
(-0.00142094	0.00067499	0.00025967)														
(-0.00147492	0.00068265	0.0003218)														
(-0.00137209	0.00068474	0.00025525)														
(-0.00132381	0.00067229	0.00025841)														
(-0.00132645	0.00066482	0.00018398)														
(-0.00127202	0.00066204	0.00020024)														
(-0.00121008	0.00063693	0.00027258)														
(-0.00123898	0.0006422	0.00023209)														
(-0.00141872	0.00063837	0.00015011)														
(-0.00147498	0.00064257	0.00016328)														
(-0.00147498	0.00059628	0.00011538)														
(-0.00118827	0.00062638	0.00020227)														
(-0.00113963	0.00058144	0.0002416)														
(-0.00115021	0.0005892	0.0001888)														
(-0.00113728	0.0005399	0.00018809)														
(-0.0012879	0.00069304	0.00031658)														
(-0.00134067	0.0006978	0.00031802)														
(-0.00125291	0.00066648	0.00029021)														
(-0.00127069	0.00068194	0.00024606)														
(-0.0012441	0.00069211	0.00034091)														
(-0.00120929	0.00066756	0.00031473)														
(-0.00115156	0.00063097	0.00031788)														
(-0.00109991	0.00045116	0.00014758)														
(-0.00111294	0.00040176	0.00014455)														
(-0.00108364	0.00045314	0.00019509)														
(-0.00105119	0.00039873	0.00024562)														
(-0.00107907	0.0003875	0.00017847)														
(-0.00108208	0.00047739	0.00024617)														
(-0.00111392	0.00057165	0.00029601)														
(-0.00109287	0.0005326	0.0002714)														
(-0.00107492	0.00045331	0.00031582)														
(-0.00106889	0.00052374	0.00031437)														
(-0.00111686	0.00050695	0.00015617)														
(-0.00126065	0.00041912	0.00002507)														
(-0.00127897	0.00037255	0.00002527)														
(-0.00135198	0.00033523	0.00002505)														
(-0.00122202	0.00032109	0.00002522)														
(-0.00118743	0.00031911	0.00006122)														
(-0.00118343	0.000264	0.00010612)														
(-0.00139672	0.00030714	0.00002535)														
(-0.00143792	0.00038252	0.000025)														
(-0.00144472	0.00030406	0.00003897)														
(-0.0013398	0.00069784	0.00036807)														
(-0.00128697	0.00071163	0.00037378)														
(-0.00116134	0.00065734	0.00037475)														
(-0.0011259	0.00062147	0.00036902)														
(-0.0010484	0.0004979	0.00037497)														
(-0.00108024	0.00056213	0.00037497)														
(-0.00142502	0.00025812	0.00003723)														
(-0.00147495	0.00026532	0.00004823)														
(-0.0014459	0.00013006	0.00014665)														
(-0.00145587	0.00018056	0.0001124)														
(-0.00147498	0.00020705	0.00006947)														
(-0.00142927	0.00022232	0.00008282)														
(-0.00141474	0.00017303	0.00008486)														
(-0.0013578	0.00015816	0.00011961)														
(-0.00138898	0.00012939	0.00015465)														
(-0.00147496	0.00034678	0.00002506)														
(-0.00142691	0.00046185	0.00002549)														
(-0.00147496	0.00047566	0.00002523)														
(-0.00131302	0.00016406	0.00009826)														
(-0.00132967	0.00013026	0.00015015)														
(-0.00135499	0.00023561	0.00002526)														
(-0.00137684	0.0001969	0.00006232)														
(-0.0013484	0.00007904	0.00017959)														
(-0.00147495	0.00009357	0.00018273)														
(-0.00122682	0.00013666	0.00012826)														
(-0.00117407	0.0001501	0.00020139)														
(-0.00117546	0.0001094	0.0002317)														
(-0.00128827	0.00006735	0.00022481)														
(-0.00126322	0.00007929	0.00017131)														
(-0.00121356	0.00008538	0.0001706)														
(-0.00127242	0.0001182	0.0001412)														
(-0.00119663	0.00007117	0.0002589)														
(-0.00128279	0.00002746	0.00026549)														
(-0.00125499	0.00004171	0.0003087)														
(-0.00132623	0.00002035	0.00024171)														
(-0.00131807	0.0000392	0.000196)														
(-0.00137616	0.00004407	0.00021464)														
(-0.00137075	0.00002001	0.00029544)														
(-0.00111049	0.00016748	0.00026587)														
(-0.00112966	0.00015833	0.00032801)														
(-0.00115108	0.00007664	0.00027875)														
(-0.00119688	0.00008879	0.00032675)														
(-0.00109833	0.00023028	0.00020752)														
(-0.0010799	0.00020262	0.00028406)														
(-0.00111688	0.00015494	0.00021771)														
(-0.00105555	0.00026266	0.000318)														
(-0.0011942	0.0002152	0.0000635)														
(-0.00132514	0.00020049	0.00006599)														
(-0.001347	0.00018186	0.0000251)														
(-0.00113495	0.00021117	0.00011493)														
(-0.0011182	0.00026513	0.00013453)														
(-0.00117799	0.00015672	0.0001447)														
(-0.00120551	0.00016477	0.0000647)														
(-0.00110202	0.00031797	0.00012725)														
(-0.00123897	0.00027289	0.00002512)														
(-0.00119471	0.0002622	0.00004586)														
(-0.00130499	0.00023592	0.00002517)														
(-0.0010901	0.0002772	0.00017413)														
(-0.00111066	0.00022229	0.00015919)														
(-0.00105001	0.00033437	0.00016538)														
(-0.00108188	0.00033288	0.00022854)														
(-0.00112368	0.00016162	0.00015586)														
(-0.00121072	0.00042182	0.00002502)														
(-0.00114427	0.00038245	0.00006182)														
(-0.00112366	0.00042486	0.00010146)														
(-0.00111796	0.00037376	0.00010345)														
(-0.00115298	0.00048409	0.00012983)														
(-0.001064	0.00020406	0.00034301)														