/*--------------------------------*- C++ -*----------------------------------*\																
  =========                 |																
  \\      /  F ield         | OpenFOAM: The Open Source CFD Toolbox																
   \\    /   O peration     | Website:  https://openfoam.org																
    \\  /    A nd           | Version:  7																
     \\/     M anipulation  |																
\*---------------------------------------------------------------------------*/																
FoamFile																
{																
    version     2.0;																
    format      ascii;																
    class       vectorField;																
    object      kinematicCloudPositions;																
}																
// * * * * * * * * * * * * * * * * * * * * * * * * * * * * * * * * * * * * * //																
																
(																
(0.00004642	0.00045184	0.00416019)														
(-0.00002549	0.00048339	0.00423674)														
(0.00007498	0.00050057	0.00422042)														
(0.00005099	0.00050351	0.00417663)														
(0.00005787	0.00049184	0.0042666)														
(0.00006466	0.00057247	0.00428056)														
(0.00007466	0.00052675	0.00429826)														
(0.0000734	0.00032533	0.00402603)														
(0.00003801	0.00059015	0.0044169)														
(0.00004952	0.00050824	0.0043373)														
(-0.00007331	0.00049346	0.00422122)														
(-0.00007497	0.00049891	0.00430693)														
(0.00002238	0.00038859	0.00400347)														
(-0.00003864	0.00053682	0.00422239)														
(-0.00004839	0.00055986	0.00426572)														
(-0.00001201	0.00042591	0.00444009)														
(0.0000747	0.00051631	0.00409883)														
(0.00001239	0.00050312	0.00409204)														
(0.0000027	0.00045981	0.00404569)														
(0.00007486	0.00050307	0.00438005)														
(0.00002582	0.00041041	0.00446902)														
(0.00005533	0.00045373	0.00429888)														
(0.00007498	0.00056644	0.00423203)														
(0.00001568	0.00061149	0.00435222)														
(0.00006991	0.00058148	0.00432946)														
(0.00007477	0.00055649	0.00441264)														
(0.00004408	0.00049067	0.00412885)														
(0.00007497	0.00044443	0.00411968)														
(0.00001784	0.00059407	0.0044932)														
(0.0000603	0.00060256	0.0043739)														
(0.00005948	0.00054858	0.0043656)														
(-0.00003152	0.00057764	0.00445808)														
(-0.00004876	0.00053838	0.00443234)														
(0.00003497	0.00041247	0.00421246)														
(-0.00007494	0.00052792	0.00439085)														
(-0.00005216	0.00051033	0.00434989)														
(-0.00003261	0.0005227	0.00429512)														
(-0.00006256	0.00055131	0.00432306)														
(-0.00006483	0.00047247	0.00426576)														
(-0.00003409	0.00042096	0.00434995)														
(-0.00007493	0.00057311	0.00422224)														
(0.0000749	0.00054027	0.00415244)														
(-0.00003094	0.00053193	0.0041613)														
(0.00007489	0.00042452	0.0040421)														
(-0.00007484	0.00041036	0.00437687)														
(0.00000314	0.00054466	0.00419556)														
(-0.00002751	0.00048934	0.00418718)														
(-0.00000338	0.00052034	0.00434549)														
(-0.00006597	0.00059987	0.00431182)														
(-0.00001978	0.00038583	0.00416243)														
(-0.00005666	0.00049162	0.00387781)														
(0.00007004	0.00040231	0.00432911)														
(0.00001747	0.00057956	0.00415388)														
(0.00001715	0.00051642	0.00430011)														
(0.00002674	0.00051626	0.00438535)														
(0.00003046	0.00047817	0.00421451)														
(0.00000893	0.00056402	0.00436649)														
(-0.00000408	0.00029237	0.00407733)														
(0.00007476	0.00043996	0.00419959)														
(0.00006946	0.00038074	0.00451102)														
(0.00000097	0.00047464	0.00414853)														
(0.00004574	0.00060683	0.00422847)														
(0.00002516	0.00056184	0.00423707)														
(-0.00001187	0.00059479	0.00441545)														
(0.00001059	0.00054839	0.0044203)														
(0.00004676	0.00046001	0.00401719)														
(0.00000048	0.00043429	0.00400267)														
(0.00001205	0.000383	0.00408161)														
(-0.00004319	0.00035583	0.00393597)														
(-0.00001251	0.00062489	0.0045183)														
(0.00007293	0.00065381	0.00441543)														
(0.00003547	0.00062072	0.00453169)														
(0.00002939	0.00065316	0.00438866)														
(0.00003751	0.00070186	0.00437836)														
(0.00006795	0.00062273	0.00445422)														
(-0.00005632	0.00061248	0.00443216)														
(-0.00007492	0.00056049	0.0044773)														
(-0.00002576	0.00057354	0.00450757)														
(-0.00002539	0.00053466	0.0043882)														
(0.00006264	0.0005732	0.00445831)														
(-0.00003243	0.00047298	0.00431084)														
(-0.00003223	0.00058396	0.00434571)														
(-0.00005913	0.00057471	0.00439951)														
(-0.00007492	0.00044434	0.00430584)														
(-0.00007494	0.00039915	0.0044989)														
(-0.00002607	0.0004208	0.00430059)														
(0.00006679	0.00039623	0.00388141)														
(-0.00007447	0.00055266	0.00414324)														
(0.00005977	0.00054044	0.00405771)														
(-0.00007481	0.00055679	0.00409344)														
(0.00001245	0.00050856	0.00404004)														
(0.00003993	0.00039491	0.00392363)														
(-0.00003206	0.00044647	0.0039667)														
(-0.00000161	0.00040905	0.00412198)														
(-0.00007478	0.00053108	0.00418832)														
(-0.00000381	0.00059556	0.00430574)														
(-0.00007404	0.0006028	0.00426257)														
(-0.00000357	0.00035885	0.00412362)														
(0.0000287	0.0004314	0.0038914)														
(0.00007473	0.00041165	0.00428019)														
(0.00005139	0.00048834	0.00406429)														
(0.00003118	0.00044433	0.00396442)														
(0.00004008	0.00054874	0.0041175)														
(0.00001426	0.00051032	0.00425053)														
(0.00007488	0.00050841	0.00447225)														
(0.00004999	0.00051651	0.00442962)														
(0.00007483	0.00046528	0.00434359)														
(0.00001904	0.00025457	0.00410072)														
(0.000024	0.00057216	0.00453768)														
(0.0000666	0.00023995	0.00410742)														
(0.00000453	0.00044449	0.00418822)														
(0.00000265	0.00046863	0.00427549)														
(-0.00002514	0.00033969	0.0040828)														
(0.00002601	0.00033544	0.00408794)														
(-0.00003432	0.0004325	0.00415166)														
(0.00002961	0.00031389	0.00400367)														
(0.00005417	0.0006287	0.004325)														
(0.00005487	0.00062138	0.00427558)														
(0.0000493	0.00056306	0.00418887)														
(-0.00002643	0.00064125	0.00440407)														
(0.00007435	0.00060946	0.00450198)														
(0.00004067	0.00036619	0.00380199)														
(0.00007499	0.0003731	0.00383774)														
(-0.00007499	0.00044924	0.00394076)														
(0.00007329	0.00030834	0.00397899)														
(-0.00000557	0.00045504	0.00410286)														
(0.00002601	0.00040623	0.00416364)														
(0.00003958	0.000444	0.0040843)														
(-0.00007318	0.00072733	0.00449524)														
(-0.0000425	0.00059642	0.00454877)														
(-0.00000331	0.00067891	0.00449142)														
(-0.00000547	0.00064383	0.00456408)														
(-0.00002515	0.00065874	0.00445116)														
(0.00001959	0.00068076	0.00444705)														
(0.000075	0.0006131	0.00456129)														
(0.00005837	0.00066679	0.00447598)														
(0.00007495	0.00071343	0.00446897)														
(0.00007416	0.00064986	0.00436561)														
(-0.00007301	0.00061544	0.00447929)														
(-0.00007499	0.00065572	0.00444961)														
(-0.00007496	0.00056513	0.00452707)														
(0.00000035	0.00059542	0.00457506)														
(-0.000009	0.00052104	0.00445722)														
(0.00006845	0.00055977	0.0045061)														
(-0.00004167	0.00052725	0.00449459)														
(-0.00001612	0.00054277	0.00454578)														
(-0.00006754	0.00047918	0.00439908)														
(-0.00002572	0.00063184	0.00433304)														
(-0.00007067	0.00046391	0.0043516)														
(0.00005781	0.00050872	0.00401912)														
(-0.00007492	0.00039826	0.00427242)														
(-0.00007498	0.00048357	0.00417219)														
(0.00005805	0.00034786	0.00375863)														
(-0.00000235	0.00042907	0.00393047)														
(0.00007498	0.00031169	0.00372859)														
(-0.00004904	0.0005352	0.00405595)														
(-0.0000299	0.00053452	0.00410861)														
(-0.00001586	0.0004595	0.00386391)														
(0.00006442	0.00044229	0.00392659)														
(0.00007489	0.00037133	0.00400627)														
(-0.00002366	0.00060324	0.00426049)														
(-0.00004815	0.00064073	0.00428906)														
(-0.00007494	0.00030928	0.00449557)														
(-0.00000883	0.00055321	0.00403226)														
(0.00002753	0.00035004	0.00371878)														
(0.00007405	0.0003901	0.00423509)														
(0.00007486	0.00046829	0.00396829)														
(-0.00000468	0.00064196	0.00415345)														
(0.00007494	0.00057379	0.0040917)														
(-0.00003706	0.0004583	0.00390948)														
(0.00007191	0.00059781	0.00413555)														
(0.00006975	0.00060851	0.00418462)														
(0.00000741	0.00055145	0.00407952)														
(0.00002723	0.00049643	0.00448155)														
(0.00003859	0.00046868	0.00442033)														
(0.00006906	0.00035277	0.00432236)														
(0.00002352	0.00041601	0.00430736)														
(0.0000222	0.00040162	0.00425954)														
(-0.00002029	0.00041252	0.00461511)														
(0.00007308	0.00056349	0.0045558)														
(-0.00005123	0.00029678	0.0045378)														
(-0.00003878	0.0002912	0.00404138)														
(0.00007424	0.00033916	0.00424473)														
(-0.00007138	0.00035352	0.00451894)														
(-0.00002802	0.00040759	0.00448387)														
(0.00007495	0.00034299	0.00407319)														
(0.00006557	0.0003946	0.00408105)														
(0.00006237	0.00030457	0.00410283)														
(0.00004267	0.00036849	0.00404455)														
(0.00005414	0.00067486	0.00430563)														
(0.00001939	0.00066142	0.00434036)														
(0.0000015	0.00064007	0.00428359)														
(-0.00001963	0.00067745	0.00431356)														
(-0.00004091	0.00069003	0.00435754)														
(0.00004653	0.00058563	0.00459202)														
(0.00007496	0.00053986	0.00459979)														
(-0.00007388	0.00036494	0.00389751)														
(-0.00000846	0.00038038	0.00390928)														
(0.00002451	0.0003474	0.00392743)														
(0.00004123	0.00035263	0.00397431)														
(0.00007487	0.00026972	0.00432562)														
(0.00001337	0.00030846	0.00395673)														
(0.00002576	0.00041548	0.00404559)														
(-0.00007144	0.00028549	0.0044475)														
(-0.0000749	0.00067348	0.00455144)														
(-0.00004497	0.00070845	0.00453196)														
(-0.00004845	0.00070822	0.00445606)														
(-0.000059	0.00059661	0.00459592)														
(0.00002305	0.0007179	0.00450958)														
(0.00001311	0.00069498	0.00455842)														
(-0.00003173	0.00063996	0.00460645)														
(0.00001473	0.00066598	0.00460408)														
(0.00006245	0.00070224	0.0044218)														
(-0.00000144	0.00072196	0.00446613)														
(-0.0000152	0.00073557	0.00437792)														
(0.00007492	0.00068979	0.00456984)														
(0.00006157	0.00066994	0.00452579)														
(0.00007482	0.00071807	0.004528)														
(0.00007499	0.00070781	0.00434458)														
(-0.00005503	0.00070678	0.00440645)														
(-0.00002149	0.00056655	0.00460959)														
(-0.00007489	0.00055472	0.00461844)														
(0.00001926	0.00051475	0.0045674)														
(0.00007031	0.00064796	0.00459678)														
(0.00003433	0.00052616	0.00452113)														
(-0.00007008	0.00048017	0.00449177)														
(-0.00005867	0.00054852	0.00457131)														
(0.00003291	0.00046888	0.00437061)														
(-0.00001598	0.00049523	0.0038288)														
(-0.00007491	0.00037061	0.00421755)														
(0.00007481	0.00042686	0.00383143)														
(-0.00007473	0.00033126	0.00424834)														
(-0.0000001	0.00053156	0.00396248)														
(0.0000131	0.00042142	0.00384499)														
(0.00004591	0.00050575	0.00395179)														
(-0.00007486	0.00056726	0.00402747)														
(-0.00007486	0.0006401	0.00419813)														
(0.00007499	0.00048966	0.00391401)														
(-0.00007492	0.0004007	0.00386265)														
(0.00006165	0.00041821	0.00399424)														
(-0.0000025	0.0006048	0.00421525)														
(-0.00007346	0.00065032	0.00424703)														
(-0.000075	0.00065165	0.00432991)														
(-0.00005606	0.0002598	0.00448759)														
(0.00001649	0.00048699	0.00398779)														
(0.00007478	0.00053529	0.00398036)														
(0.00007148	0.00040287	0.00378767)														
(0.00007237	0.00035668	0.00419798)														
(0.00007488	0.0004454	0.00387784)														
(0.00002929	0.0005454	0.0040005)														
(0.00005071	0.00058922	0.00401165)														
(0.00004628	0.00027238	0.00428469)														
(0.00005671	0.00065284	0.00416538)														
(0.00005794	0.0006536	0.0042154)														
(0.00007496	0.00066489	0.00426122)														
(-0.00003569	0.00057592	0.00419139)														
(0.00007486	0.00049772	0.00452819)														
(0.00007468	0.00044632	0.00438985)														
(0.0000745	0.00046255	0.0044927)														
(0.00001604	0.00047226	0.00432368)														
(-0.0000107	0.00048991	0.00440567)														
(0.00005646	0.00038425	0.00437369)														
(0.00002352	0.00054406	0.00460779)														
(-0.00006467	0.00029365	0.00458581)														
(-0.00003945	0.00025133	0.00455563)														
(0.00003196	0.00033441	0.00421727)														
(0.00007492	0.00027029	0.00406861)														
(-0.00002274	0.00035418	0.00420098)														
(-0.00001932	0.00047382	0.00435913)														
(0.00001787	0.00036642	0.00431055)														
(-0.0000748	0.00049763	0.0044452)														
(0.00007495	0.00022191	0.00448358)														
(0.000041	0.00038177	0.00412261)														
(-0.00001554	0.00034459	0.00397613)														
(0.00007345	0.00024396	0.00452839)														
(0.00002737	0.00019169	0.00402944)														
(0.00004577	0.00015155	0.0040532)														
(0.00002563	0.00025958	0.00402877)														
(0.00002725	0.00070965	0.00432997)														
(0.0000025	0.00065071	0.00423477)														
(-0.00004095	0.00069944	0.00427407)														
(0.0000144	0.00068802	0.00427793)														
(-0.00003635	0.00073324	0.00433242)														
(-0.00007498	0.00072591	0.0043648)														
(0.00002839	0.00065869	0.00465161)														
(0.00007484	0.00058183	0.00468643)														
(-0.00007482	0.00015955	0.00399094)														
(-0.00000784	0.0003784	0.00385934)														
(-0.00004274	0.00034301	0.00386506)														
(0.00004583	0.00021593	0.00398983)														
(-0.00003239	0.00031016	0.00390135)														
(-0.00007476	0.00026406	0.0042737)														
(-0.00003906	0.0002897	0.00394669)														
(0.00007491	0.00038599	0.00395821)														
(-0.00003097	0.00070525	0.00457987)														
(-0.00007496	0.00069231	0.00459995)														
(-0.00004271	0.0007498	0.00456026)														
(-0.0000217	0.00074438	0.00450613)														
(-0.0000749	0.00076674	0.00446456)														
(-0.00007483	0.00061557	0.00463955)														
(0.00005706	0.00075173	0.00449559)														
(0.00002307	0.00074907	0.00454877)														
(0.000069	0.00073946	0.00457284)														
(-0.0000347	0.00064018	0.00465632)														
(0.00002289	0.00070784	0.00464461)														
(0.00002879	0.00075212	0.00441089)														
(0.00007381	0.00073547	0.00438623)														
(-0.00002019	0.0007528	0.00442453)														
(0.00000817	0.00077048	0.00447337)														
(0.00002819	0.00075419	0.00436091)														
(0.000075	0.00067026	0.00466555)														
(0.00001414	0.00061788	0.00461753)														
(0.0000718	0.00069548	0.00461947)														
(0.00007469	0.00071533	0.00423263)														
(-0.00007286	0.00075262	0.00441657)														
(-0.00005049	0.00058468	0.00467044)														
(-0.0000058	0.0005668	0.00465703)														
(0.00005318	0.0004449	0.00460571)														
(0.00000782	0.00051905	0.00464815)														
(0.00004692	0.00049994	0.00461099)														
(0.00005828	0.00057593	0.00463967)														
(-0.00004648	0.00049573	0.00453307)														
(-0.00003025	0.00050806	0.00457882)														
(-0.00003762	0.00052209	0.00462629)														
(-0.00001604	0.00047651	0.00449714)														
(-0.00006032	0.00044393	0.00384211)														
(-0.00007499	0.00038258	0.00416265)														
(-0.00004249	0.00039125	0.00382573)														
(-0.00006484	0.0003281	0.00419313)														
(-0.00006671	0.00028572	0.00422938)														
(-0.00004369	0.00049197	0.00413416)														
(0.00007482	0.00050822	0.00386762)														
(-0.00007476	0.00045233	0.00412978)														
(-0.0000738	0.00055262	0.00397933)														
(-0.00007492	0.0006385	0.00410361)														
(0.00003821	0.00041378	0.00371304)														
(0.00004213	0.00046253	0.00384417)														
(-0.0000746	0.00022546	0.00435321)														
(0.00002621	0.00059578	0.00410745)														
(-0.00005825	0.00063942	0.00415072)														
(-0.00007378	0.00070088	0.00432149)														
(-0.00007493	0.0002148	0.00449899)														
(-0.00003492	0.00058284	0.00400162)														
(0.0000748	0.00058833	0.00396785)														
(0.00006398	0.00053838	0.00390598)														
(0.00007474	0.00045071	0.00377347)														
(0.00007484	0.00039097	0.00373917)														
(0.00007491	0.0003554	0.00370378)														
(0.00003823	0.00058583	0.00405991)														
(0.00004265	0.0005555	0.00394785)														
(0.00006041	0.00022534	0.00429488)														
(-0.00003167	0.00041576	0.0038827)														
(0.00007185	0.000255	0.00424457)														
(0.0000329	0.00064982	0.00412148)														
(0.00003943	0.0007486	0.00419659)														
(0.00006628	0.00069695	0.00418679)														
(-0.00003144	0.00057799	0.00414153)														
(0.00007028	0.00052803	0.00464816)														
(0.00007492	0.00044546	0.0044457)														
(0.00003353	0.00046649	0.00452107)														
(-0.0000001	0.00030672	0.00419045)														
(-0.00000437	0.00043761	0.0042369)														
(-0.00003351	0.00041445	0.00420101)														
(0.00004358	0.00033729	0.00472043)														
(-0.00002139	0.00024634	0.00460194)														
(-0.0000728	0.00027281	0.00463053)														
(0.00002031	0.00015117	0.00415823)														
(0.00004697	0.00033505	0.00413932)														
(0.00001986	0.00035769	0.00417465)														
(-0.00000079	0.00032907	0.00404037)														
(0.00007095	0.0003158	0.00428881)														
(-0.00003035	0.00047507	0.00444923)														
(-0.00002833	0.00025938	0.00464966)														
(-0.00002631	0.00031509	0.00423237)														
(0.00003329	0.00020853	0.00408741)														
(0.00002327	0.00019733	0.00443848)														
(-0.00004991	0.00009241	0.00414353)														
(-0.00005127	0.00015673	0.00418117)														
(0.00003888	0.00030153	0.00405353)														
(0.00002684	0.00017459	0.00439412)														
(0.00007493	0.00014917	0.0040937)														
(0.00000004	0.00073759	0.00429846)														
(0.00000595	0.00067639	0.00419203)														
(-0.00001579	0.00069901	0.00423091)														
(-0.00007484	0.00070484	0.00423768)														
(0.00002222	0.00073049	0.00423995)														
(-0.00007478	0.00076514	0.00433364)														
(-0.00003224	0.00077789	0.00435709)														
(0.0000036	0.00063523	0.00468814)														
(0.00000244	0.00058721	0.00470188)														
(0.00004104	0.00061986	0.0047178)														
(0.00006252	0.00025992	0.00397244)														
(-0.00007026	0.00020305	0.00396672)														
(-0.00003039	0.00024342	0.00423168)														
(-0.00001811	0.00044707	0.00381548)														
(0.0000552	0.00028953	0.00393286)														
(0.00006496	0.00012831	0.00401331)														
(0.00007371	0.00015105	0.00393167)														
(-0.00002762	0.00018498	0.00414731)														
(-0.00007484	0.00031823	0.0039266)														
(-0.00007496	0.00021339	0.00410707)														
(-0.00006086	0.00071175	0.00464378)														
(-0.00001952	0.00075745	0.00460392)														
(-0.00007498	0.00074507	0.00459823)														
(0.0000217	0.00072496	0.00459763)														
(-0.00001606	0.0007954	0.00456488)														
(-0.00007498	0.00078469	0.00451183)														
(-0.00003207	0.00079739	0.00448917)														
(0.00000557	0.00078724	0.00452056)														
(0.00004529	0.00080053	0.00449184)														
(0.00007494	0.00078957	0.00453054)														
(0.00002627	0.00077437	0.00459172)														
(0.0000749	0.00075963	0.00461817)														
(-0.00005093	0.00063563	0.00470345)														
(-0.00001992	0.00069512	0.0046672)														
(0.00002516	0.00068039	0.00469655)														
(0.00007494	0.00081147	0.00438669)														
(0.0000748	0.00078805	0.00434227)														
(-0.00005032	0.00079878	0.00443005)														
(-0.00000712	0.00079511	0.00440117)														
(0.00000656	0.00082003	0.00446674)														
(0.00000651	0.00078237	0.00432575)														
(0.00007279	0.00067017	0.00471553)														
(0.00007437	0.00071701	0.00468319)														
(0.00005698	0.00077572	0.00429718)														
(-0.00007495	0.00079276	0.00438684)														
(-0.00007489	0.00058007	0.00471378)														
(0.00000955	0.00051657	0.00470284)														
(0.00007495	0.00053164	0.00470413)														
(0.00003673	0.00055026	0.0046779)														
(-0.00006062	0.0005163	0.00476008)														
(-0.00003284	0.00055779	0.00475866)														
(-0.00006765	0.00053801	0.00466501)														
(-0.00000038	0.00048335	0.00461037)														
(0.00005168	0.00047636	0.00456694)														
(-0.00000942	0.0004651	0.00454688)														
(0.00004415	0.00057015	0.00472413)														
(-0.0000617	0.0004806	0.0046123)														
(-0.00005437	0.00038038	0.00411622)														
(-0.00007491	0.00042006	0.00380068)														
(-0.00007496	0.00033698	0.00414036)														
(-0.00004841	0.00038524	0.00377631)														
(-0.0000703	0.0002802	0.00417974)														
(-0.00007484	0.00023906	0.00420895)														
(-0.00003549	0.00049078	0.0040849)														
(0.00001152	0.00053118	0.00391388)														
(0.00001106	0.00049792	0.00378306)														
(-0.00004994	0.00043662	0.00408917)														
(-0.00007462	0.00065744	0.00405738)														
(-0.00006266	0.00069162	0.00409193)														
(0.00005119	0.00049171	0.00371021)														
(0.00007476	0.00040719	0.00367861)														
(0.00006987	0.000265	0.00389184)														
(-0.00007485	0.00016692	0.00408849)														
(0.00002338	0.00063261	0.00407372)														
(-0.00006842	0.00068922	0.00419054)														
(-0.0000649	0.0007398	0.00429145)														
(0.0000701	0.00013897	0.00414618)														
(-0.0000303	0.00057029	0.00395325)														
(0.00001085	0.00061395	0.00402892)														
(0.00002432	0.00054837	0.00378653)														
(0.00007497	0.00044929	0.00372346)														
(0.00007358	0.00063164	0.00409883)														
(0.00007472	0.00059938	0.00391477)														
(0.00001928	0.00022667	0.00394884)														
(-0.00000709	0.00016689	0.00410538)														
(0.00007494	0.00025676	0.00419463)														
(0.00007469	0.00067752	0.00412585)														
(0.00000272	0.00070786	0.00412649)														
(0.00007494	0.00073974	0.00416245)														
(0.00007359	0.00076528	0.00422983)														
(-0.00003135	0.00058153	0.00409164)														
(-0.00003945	0.00070912	0.00403743)														
(0.00007434	0.00046324	0.00469406)														
(-0.00007499	0.00047027	0.00456526)														
(0.00007468	0.00047804	0.00464631)														
(0.00001415	0.00040276	0.00435461)														
(0.00002901	0.00035218	0.00426397)														
(-0.00003067	0.00037491	0.00431981)														
(0.00005005	0.00012114	0.00424114)														
(0.00006862	0.00042785	0.00452816)														
(-0.00006688	0.00035326	0.00429257)														
(-0.0000749	0.00043431	0.004181)														
(0.00000652	0.00021526	0.00462937)														
(-0.00002514	0.00029889	0.00399391)														
(-0.00007499	0.0002987	0.00407498)														
(0.00006026	0.00017514	0.00417942)														
(0.00007489	-0.00001156	0.00400486)														
(-0.00004748	0.00044182	0.0045148)														
(-0.00007175	0.00025413	0.00467685)														
(-0.00001403	0.00021855	0.0046748)														
(-0.00003245	0.0003139	0.0041529)														
(-0.00003707	0.00039592	0.00453159)														
(-0.00007494	0.00001247	0.00393384)														
(0.00006614	0.0002161	0.00405048)														
(-0.0000742	0.00018909	0.00421157)														
(-0.00007483	0.00015526	0.00413707)														
(0.00006461	0.00022452	0.00434465)														
(0.00001259	0.00026453	0.00398074)														
(0.00007476	0.00025527	0.00402065)														
(0.0000028	0.00038725	0.00395747)														
(0.00001229	0.00078355	0.00427603)														
(-0.00003054	0.00066055	0.00411489)														
(-0.00003246	0.00071144	0.00416226)														
(-0.0000404	0.00074043	0.00424446)														
(0.00001163	0.00077745	0.00422643)														
(-0.00003587	0.00084105	0.00421489)														
(0.0000028	0.00067431	0.00474085)														
(-0.00002197	0.00062591	0.00474308)														
(0.00002646	0.0006364	0.00476322)														
(0.00007496	0.00062893	0.00475354)														
(-0.00001653	0.00026695	0.00388173)														
(0.00006521	0.00023323	0.00393015)														
(-0.00003325	0.00022561	0.00418474)														
(-0.00000021	0.0004013	0.0038011)														
(0.00002145	0.00030569	0.00389957)														
(0.00004096	0.00018157	0.0039539)														
(0.00000557	0.00018877	0.00391919)														
(0.00000677	0.00014162	0.00393586)														
(-0.00006462	0.00016337	0.0040397)														
(-0.00004868	0.00012352	0.00439052)														
(-0.0000601	0.00075416	0.00467049)														
(-0.00007484	0.00067491	0.00467454)														
(-0.00000819	0.00078966	0.00464043)														
(0.00000079	0.00074745	0.00466571)														
(-0.00007476	0.00080411	0.00460486)														
(0.00000735	0.00081995	0.00460168)														
(-0.00001462	0.00083443	0.0045236)														
(-0.00004533	0.00083385	0.00457756)														
(-0.00006443	0.00083327	0.00451772)														
(-0.00006394	0.00084609	0.004455)														
(0.00003599	0.00082005	0.00454288)														
(0.00003974	0.00084975	0.00450179)														
(0.00007484	0.00084895	0.00442566)														
(0.00007489	0.0008202	0.00457433)														
(0.00004751	0.00080278	0.00462713)														
(0.00007481	0.00078238	0.00466398)														
(-0.00006671	0.0007025	0.00471543)														
(-0.00002385	0.00072722	0.00470547)														
(0.00002919	0.00073168	0.004704)														
(0.00005362	0.0008564	0.00438105)														
(0.00004588	0.0008246	0.00430535)														
(0.00003444	0.00081576	0.00435318)														
(-0.00001975	0.00084372	0.00441734)														
(-0.00003797	0.0008243	0.00437483)														
(-0.00000654	0.00086496	0.00448481)														
(0.00002324	0.00085797	0.00443876)														
(0.00006942	0.00067571	0.00477036)														
(0.00007491	0.0007247	0.00473261)														
(0.00007465	0.00080502	0.00426074)														
(-0.00007497	0.0008478	0.0044063)														
(-0.00007488	0.00062437	0.00474591)														
(0.00002672	0.00053788	0.00479531)														
(0.00007491	0.0005675	0.00476341)														
(0.00001236	0.00053944	0.0047474)														
(-0.00007482	0.00052985	0.00471399)														
(-0.00007477	0.0005818	0.00477233)														
(0.00003271	0.00048359	0.00467317)														
(-0.00002963	0.00054701	0.00469625)														
(-0.00006984	0.00044672	0.0046481)														
(0.0000585	0.00057369	0.0048102)														
(-0.00003644	0.00038676	0.00406999)														
(-0.00007474	0.00035139	0.00408099)														
(0.00003362	0.00046558	0.00374902)														
(-0.00002827	0.00040215	0.00372758)														
(-0.00002653	0.00042974	0.00376935)														
(0.00002458	0.00041787	0.00376093)														
(-0.00003396	0.00018673	0.0038887)														
(-0.00003466	0.00049221	0.00403492)														
(0.00002976	0.0005832	0.00383187)														
(-0.00006808	0.0004919	0.00382916)														
(-0.00005632	0.00046505	0.00378864)														
(-0.00007295	0.00069076	0.00414081)														
(0.00000414	0.00035531	0.003633)														
(0.00003105	0.00052238	0.00374429)														
(0.00002958	0.00027297	0.00386246)														
(0.00004931	0.00045017	0.00368054)														
(0.00002801	0.00045305	0.00379713)														
(0.00000425	0.00060553	0.00398011)														
(0.000017	0.00068138	0.00408616)														
(-0.00007434	0.00073902	0.0041902)														
(-0.00007499	0.00079024	0.0042401)														
(-0.00005005	0.00012369	0.00453392)														
(0.00007123	0.00055064	0.0038389)														
(0.00003938	0.00061606	0.00394605)														
(0.00004557	0.0005703	0.00374293)														
(0.00005139	0.0005769	0.00387676)														
(0.00002979	0.00039267	0.00361196)														
(0.00007123	0.00062772	0.00404909)														
(0.00007466	0.00054593	0.00377545)														
(0.00000273	0.00026902	0.00392787)														
(0.00007347	0.00012568	0.00388845)														
(0.00005003	0.00071552	0.00410467)														